[General]
network = fcnetwork
repeat = 100
seed-set = 6
sim-time-limit = 10s
