[General]
network = fcnetwork
#experiment-label = statusmap[getName()]
repeat = 100
sim-time-limit = 10s
